/*--------------------------------*- C++ -*----------------------------------*\
| =========                 |                                                 |
| \\      /  F ield         | OpenFOAM: The Open Source CFD Toolbox           |
|  \\    /   O peration     | Version:  2312                                  |
|   \\  /    A nd           | Website:  www.openfoam.com                      |
|    \\/     M anipulation  |                                                 |
\*---------------------------------------------------------------------------*/
FoamFile
{
    version     2.0;
    format      ascii;
    arch        "LSB;label=32;scalar=64";
    class       polyBoundaryMesh;
    location    "constant/polyMesh";
    object      boundary;
}
// * * * * * * * * * * * * * * * * * * * * * * * * * * * * * * * * * * * * * //

3
(
    movingWall
    {
        type            wall;
        inGroups        1(wall);
        nFaces          105;
        startFace       21840;
    }
    fixedWalls
    {
        type            wall;
        inGroups        1(wall);
        nFaces          315;
        startFace       21945;
    }
    frontAndBack
    {
        type            empty;
        inGroups        1(empty);
        nFaces          22050;
        startFace       22260;
    }
)

// ************************************************************************* //
